<routes>
    <vType accel="1.0" decel="0.0" id="Car" length="2.0" maxSpeed="100.0" sigma="10.0" Speedmode="0" />
  
    
    <route id="route0" edges="1to3 3to2"/>  
    <route id="route1" edges="4to3 3to1"/>
    <route id="route2" edges="2to3 3to1"/>
    <route id="route3" edges="4to3 3to5"/>
    
    
   	
    <vehicle depart="1" id="veh0" route="route0" type="Car" begin ="0" />
    <vehicle depart="1" id="veh1" route="route3" type="Car" begin ="0"/>
   
    
    
</routes>
