<?xml version="1.0"?>
<!-- 
194 Cars leaving the Computer Science Building and campus of the University of Erlangen-Nuremberg
Copyright (C) 2008 Christoph Sommer <christoph.sommer@informatik.uni-erlangen.de>
Licensed under the Creative Commons Attribution-ShareAlike 2.0 license <http://creativecommons.org/licenses/by-sa/2.0/>

<routes>
   <vType id="vtype0" accel="2.6" decel="4.5" sigma="0.5" length="2.5" minGap="2.5" maxSpeed="14" color="1,1,0"/>
   <route id="route0" edges="-39539626 -5445204#2 -5445204#1 113939244#2 -126606716 23339459 30405358#1 85355912 85355911#0 85355911#1 30405356 5931612 30350450#0 30350450#1 30350450#2 4006702#0 4006702#1 4900043 4900041#1"/>
   <flow id="flow0" type="vtype0" route="route0" begin="0" period="3" number="195"/>
</routes>

-->

<routes>
    <vType accel="10.0" decel="0.0" id="Car" length="2.0" maxSpeed="300.0" sigma="0.0" Speedmode="0" />
  
    
    <route id="route0" edges="1to2 2to3"/>  
    <route id="route1" edges="4to5 5to6"/>
    
    
   	
    <vehicle depart="1" id="veh0" route="route0" type="Car" />
    <vehicle depart="1" id="veh1" route="route1" type="Car" />
    
    
    
</routes>
