<?xml version="1.0" encoding="UTF-8"?>

<!-- generated on Fri Apr  6 17:50:24 2018 by SUMO netconvert Version 0.25.0
<?xml version="1.0" encoding="UTF-8"?>

<configuration xmlns:xsi="http://www.w3.org/2001/XMLSchema-instance" xsi:noNamespaceSchemaLocation="http://sumo.dlr.de/xsd/netconvertConfiguration.xsd">

    <input>
        <node-files value="erlangen.node.xml"/>
        <edge-files value="erlangen.edg.xml"/>
    </input>

    <output>
        <output-file value="erlangen.net.xml"/>
    </output>

</configuration>
-->

<net version="0.25" xmlns:xsi="http://www.w3.org/2001/XMLSchema-instance" xsi:noNamespaceSchemaLocation="http://sumo.dlr.de/xsd/net_file.xsd">

    <location netOffset="250.00,250.00" convBoundary="0.00,0.00,501.00,500.00" origBoundary="-250.00,-250.00,251.00,250.00" projParameter="!"/>

    <edge id=":2_0" function="internal">
        <lane id=":2_0_0" index="0" speed="13.90" length="0.10" shape="500.00,248.35 500.00,248.35"/>
    </edge>
    <edge id=":5_0" function="internal">
        <lane id=":5_0_0" index="0" speed="13.90" length="0.10" shape="248.35,250.00 248.35,250.00"/>
    </edge>

    <edge id="1to2" from="1" to="2" priority="-1">
        <lane id="1to2_0" index="0" speed="13.90" length="500.00" shape="0.00,248.35 500.00,248.35"/>
    </edge>
    <edge id="2to3" from="2" to="3" priority="-1">
        <lane id="2to3_0" index="0" speed="13.90" length="1.00" shape="500.00,248.35 501.00,248.35"/>
    </edge>
    <edge id="4to5" from="4" to="5" priority="-1">
        <lane id="4to5_0" index="0" speed="13.90" length="250.00" shape="248.35,500.00 248.35,250.00"/>
    </edge>
    <edge id="5to6" from="5" to="6" priority="-1">
        <lane id="5to6_0" index="0" speed="13.90" length="250.00" shape="248.35,250.00 248.35,0.00"/>
    </edge>

    <junction id="1" type="unregulated" x="0.00" y="250.00" incLanes="" intLanes="" shape="0.00,249.95 0.00,246.75"/>
    <junction id="2" type="priority" x="500.00" y="250.00" incLanes="1to2_0" intLanes=":2_0_0" shape="500.00,249.95 500.00,246.75 500.00,249.95">
        <request index="0" response="0" foes="0" cont="0"/>
    </junction>
    <junction id="3" type="unregulated" x="501.00" y="250.00" incLanes="2to3_0" intLanes="" shape="501.00,246.75 501.00,249.95"/>
    <junction id="4" type="unregulated" x="250.00" y="500.00" incLanes="" intLanes="" shape="249.95,500.00 246.75,500.00"/>
    <junction id="5" type="priority" x="250.00" y="250.00" incLanes="4to5_0" intLanes=":5_0_0" shape="246.75,250.00 249.95,250.00 246.75,250.00">
        <request index="0" response="0" foes="0" cont="0"/>
    </junction>
    <junction id="6" type="unregulated" x="250.00" y="0.00" incLanes="5to6_0" intLanes="" shape="246.75,0.00 249.95,0.00"/>

    <connection from="1to2" to="2to3" fromLane="0" toLane="0" via=":2_0_0" dir="s" state="M"/>
    <connection from="4to5" to="5to6" fromLane="0" toLane="0" via=":5_0_0" dir="s" state="M"/>

    <connection from=":2_0" to="2to3" fromLane="0" toLane="0" dir="s" state="M"/>
    <connection from=":5_0" to="5to6" fromLane="0" toLane="0" dir="s" state="M"/>

</net>
